Version 4
SHEET 1 1044 680
WIRE 576 -48 544 -48
WIRE 704 -48 656 -48
WIRE 800 -48 768 -48
WIRE -576 48 -704 48
WIRE -432 48 -576 48
WIRE -48 48 -432 48
WIRE 48 48 -48 48
WIRE 480 48 128 48
WIRE 544 48 544 -48
WIRE 544 48 480 48
WIRE 704 48 544 48
WIRE 800 48 800 -48
WIRE 800 48 768 48
WIRE 848 48 800 48
WIRE 944 48 848 48
WIRE -704 64 -704 48
WIRE 848 64 848 48
WIRE 944 64 944 48
WIRE -576 80 -576 48
WIRE -48 96 -48 48
WIRE 480 112 480 48
WIRE 624 112 480 112
WIRE 624 144 624 112
WIRE -704 160 -704 144
WIRE -432 160 -432 128
WIRE -208 160 -432 160
WIRE 160 160 112 160
WIRE 848 160 848 128
WIRE 944 160 944 144
WIRE -576 176 -576 144
WIRE 480 176 480 112
WIRE -432 192 -432 160
WIRE -288 256 -304 256
WIRE -208 256 -224 256
WIRE 336 256 112 256
WIRE 432 256 336 256
WIRE 624 256 624 224
WIRE -432 304 -432 272
WIRE 480 336 480 272
WIRE 624 336 624 320
WIRE 624 336 480 336
WIRE 800 336 800 48
WIRE -224 352 -224 336
WIRE -208 352 -224 352
WIRE 480 352 480 336
WIRE 480 352 112 352
WIRE -400 448 -416 448
WIRE -320 448 -336 448
WIRE -208 448 -240 448
WIRE 800 448 800 416
WIRE 800 448 112 448
WIRE -48 528 -48 512
WIRE 800 544 800 528
WIRE 480 560 480 352
WIRE 480 656 480 640
FLAG -704 160 0
FLAG -304 256 0
FLAG -416 448 0
FLAG -48 528 0
FLAG 848 160 0
FLAG 944 160 0
FLAG 800 544 0
FLAG 944 48 OUT
FLAG -704 48 IN
FLAG 480 656 0
FLAG -304 336 0
FLAG -432 304 0
FLAG 224 160 0
FLAG 336 256 gate
FLAG -576 176 0
SYMBOL nmos 432 176 R0
SYMATTR InstName Q1
SYMATTR Value IRF2807Z
SYMBOL ind 32 64 R270
WINDOW 0 32 56 VTop 2
WINDOW 3 5 56 VBottom 2
SYMATTR InstName L1
SYMATTR Value 22µ
SYMBOL voltage -704 48 R0
WINDOW 123 0 0 Left 2
WINDOW 39 0 0 Left 2
SYMATTR InstName V1
SYMATTR Value 12
SYMBOL cap -224 240 R90
WINDOW 0 0 32 VBottom 2
WINDOW 3 32 32 VTop 2
SYMATTR InstName C1
SYMATTR Value 100p
SYMBOL cap -336 432 R90
WINDOW 0 0 32 VBottom 2
WINDOW 3 32 32 VTop 2
SYMATTR InstName C2
SYMATTR Value 6800p
SYMBOL schottky 704 64 R270
WINDOW 0 32 32 VTop 2
WINDOW 3 0 32 VBottom 2
SYMATTR InstName D1
SYMATTR Value mbrs340
SYMATTR Description Diode
SYMATTR Type diode
SYMBOL cap 832 64 R0
SYMATTR InstName C3
SYMATTR Value 100µ
SYMBOL res 784 320 R0
SYMATTR InstName R1
SYMATTR Value 198k
SYMBOL res 784 432 R0
SYMATTR InstName R2
SYMATTR Value 12k
SYMBOL res -224 432 R90
WINDOW 0 0 56 VBottom 2
WINDOW 3 32 56 VTop 2
SYMATTR InstName R3
SYMATTR Value 22k
SYMBOL res 928 48 R0
SYMATTR InstName Rload
SYMATTR Value 8
SYMBOL res 464 544 R0
SYMATTR InstName Rsense
SYMATTR Value 8.54m
SYMBOL PowerProducts\\LT3757 -48 304 R0
SYMATTR InstName U1
SYMBOL res -208 320 R90
WINDOW 0 0 56 VBottom 2
WINDOW 3 32 56 VTop 2
SYMATTR InstName R4
SYMATTR Value 104.3k
SYMBOL res -448 32 R0
SYMATTR InstName R5
SYMATTR Value 14.7k
SYMBOL res -448 176 R0
SYMATTR InstName R6
SYMATTR Value 10k
SYMBOL cap 224 144 R90
WINDOW 0 0 32 VBottom 2
WINDOW 3 32 32 VTop 2
SYMATTR InstName C4
SYMATTR Value 4.7µ
SYMBOL cap -592 80 R0
SYMATTR InstName C5
SYMATTR Value 22m
SYMBOL res 608 128 R0
SYMATTR InstName RSnub
SYMATTR Value 100
SYMBOL cap 608 256 R0
SYMATTR InstName CSnub
SYMATTR Value 10p
SYMBOL res 560 -32 R270
WINDOW 0 32 56 VTop 2
WINDOW 3 0 56 VBottom 2
SYMATTR InstName RSnub2
SYMATTR Value 1.5k
SYMBOL cap 704 -32 R270
WINDOW 0 32 32 VTop 2
WINDOW 3 0 32 VBottom 2
SYMATTR InstName CSnub2
SYMATTR Value 10p
TEXT 8 584 Left 2 !.tran 0 10m 0.2m startup
