Version 4
SHEET 1 1848 680
WIRE 560 -352 432 -352
WIRE 624 -352 560 -352
WIRE 752 -352 704 -352
WIRE 896 -352 832 -352
WIRE 976 -352 896 -352
WIRE 1152 -352 1040 -352
WIRE 1200 -352 1152 -352
WIRE 1248 -352 1200 -352
WIRE 432 -272 432 -352
WIRE 1248 -272 1248 -352
WIRE 1152 -256 1152 -352
WIRE 1152 -160 1152 -192
WIRE 1200 -160 1152 -160
WIRE 1248 -160 1248 -192
WIRE 1248 -160 1200 -160
WIRE 1200 -144 1200 -160
WIRE 432 -128 432 -192
WIRE 672 -80 528 -80
WIRE 672 -64 672 -80
WIRE 528 -32 528 -80
WIRE 528 32 528 -32
WIRE 896 32 896 -352
WIRE 672 48 672 16
WIRE 528 64 528 32
WIRE 96 80 32 80
WIRE 192 80 96 80
WIRE 384 80 320 80
WIRE 448 80 384 80
WIRE 464 80 448 80
WIRE 32 112 32 80
WIRE 608 112 592 112
WIRE 624 112 608 112
WIRE 672 112 624 112
WIRE 784 112 752 112
WIRE 848 112 784 112
WIRE 448 144 400 144
WIRE 464 144 448 144
WIRE 528 192 528 160
WIRE 400 224 400 144
WIRE 448 224 400 224
WIRE 528 224 528 192
WIRE 528 224 448 224
WIRE 32 240 32 192
WIRE 448 240 448 224
WIRE 896 240 896 208
FLAG 32 240 0
FLAG 672 48 0
FLAG 896 240 0
FLAG 1200 -144 0
FLAG 432 -128 0
FLAG 448 240 0
FLAG 1200 -352 out
FLAG 896 -352 sw
FLAG 784 112 Vgate
FLAG 96 80 vc
FLAG 384 80 c
FLAG 528 -32 vdd
FLAG 624 112 g
FLAG 560 -352 in
SYMBOL voltage 32 96 R0
WINDOW 3 11 114 Left 2
WINDOW 123 0 0 Left 2
WINDOW 39 0 0 Left 2
SYMATTR Value PWL(0 0.55 5.01m 0.55 5.02m 0.594)
SYMATTR InstName Vduty
SYMBOL voltage 672 -80 R0
WINDOW 0 -70 -19 Left 2
WINDOW 3 -64 56 Left 2
WINDOW 123 0 0 Left 0
WINDOW 39 0 0 Left 0
SYMATTR InstName Vdd_driver
SYMATTR Value 7
SYMBOL res 768 96 R90
WINDOW 0 0 56 VBottom 2
WINDOW 3 32 56 VTop 2
SYMATTR InstName Rg
SYMATTR Value 1
SYMBOL cap 1136 -256 R0
WINDOW 0 -44 28 Left 2
WINDOW 3 -49 56 Left 2
SYMATTR InstName C1
SYMATTR Value 100µF
SYMBOL res 1232 -288 R0
SYMATTR InstName Rload
SYMATTR Value 8ohm
SYMBOL ind 608 -336 R270
WINDOW 0 32 56 VTop 2
WINDOW 3 5 56 VBottom 2
SYMATTR InstName L1
SYMATTR Value 22µH
SYMBOL res 848 -368 R90
WINDOW 0 0 56 VBottom 2
WINDOW 3 32 56 VTop 2
SYMATTR InstName RL
SYMATTR Value 22mohm
SYMBOL voltage 432 -288 R0
WINDOW 123 0 0 Left 0
WINDOW 39 0 0 Left 0
SYMATTR InstName Vg
SYMATTR Value 12
SYMBOL PWM 256 80 R0
SYMATTR InstName U2
SYMATTR SpiceLine2 Dmin=0, Dmax=0.9, Voffset=0
SYMATTR SpiceLine VM=1V, fs=131kHz
SYMBOL Driver 512 112 R0
SYMATTR InstName U1
SYMATTR SpiceLine2 Tdelay=30ns, IQ=1mA, Vuvl=5V
SYMBOL schottky 976 -336 R270
WINDOW 0 32 32 VTop 2
WINDOW 3 0 32 VBottom 2
SYMATTR InstName D2
SYMATTR Value MBRS340
SYMATTR Description Diode
SYMATTR Type diode
SYMBOL nmos 848 32 R0
SYMATTR InstName M1
SYMATTR Value IRF2807Z
SYMBOL res 880 112 R0
SYMATTR InstName Rsens1
SYMATTR Value 8.54m
TEXT 544 216 Left 2 ;Gate driver
TEXT 128 176 Left 2 ;Pulse-width modulator
TEXT 976 -80 Left 2 ;Simulation directives
TEXT 976 -40 Left 2 !.lib switching.lib
TEXT 976 32 Left 2 !.options reltol=0.0005
TEXT 616 -256 Left 2 ;Boost converter\nswitching model
TEXT 976 -8 Left 2 !.tran 0 10m 5m 20e-9
