Version 4
SHEET 1 1968 788
WIRE 560 -352 432 -352
WIRE 624 -352 560 -352
WIRE 752 -352 704 -352
WIRE 896 -352 832 -352
WIRE 976 -352 896 -352
WIRE 1152 -352 1040 -352
WIRE 1200 -352 1152 -352
WIRE 1248 -352 1200 -352
WIRE 1440 -352 1248 -352
WIRE 1440 -336 1440 -352
WIRE 432 -272 432 -352
WIRE 1248 -272 1248 -352
WIRE 1152 -256 1152 -352
WIRE 1440 -224 1440 -256
WIRE 1504 -224 1440 -224
WIRE 1440 -176 1440 -224
WIRE 1152 -160 1152 -192
WIRE 1200 -160 1152 -160
WIRE 1248 -160 1248 -192
WIRE 1248 -160 1200 -160
WIRE 1200 -144 1200 -160
WIRE 432 -128 432 -192
WIRE 672 -80 528 -80
WIRE 1440 -80 1440 -96
WIRE 672 -64 672 -80
WIRE 528 -32 528 -80
WIRE 528 32 528 -32
WIRE 896 32 896 -352
WIRE 672 48 672 16
WIRE 528 64 528 32
WIRE 96 80 16 80
WIRE 192 80 96 80
WIRE 384 80 320 80
WIRE 448 80 384 80
WIRE 464 80 448 80
WIRE 608 112 592 112
WIRE 624 112 608 112
WIRE 672 112 624 112
WIRE 784 112 752 112
WIRE 848 112 784 112
WIRE 448 144 400 144
WIRE 464 144 448 144
WIRE 896 144 896 128
WIRE 528 192 528 160
WIRE 400 224 400 144
WIRE 448 224 400 224
WIRE 528 224 528 192
WIRE 528 224 448 224
WIRE 448 240 448 224
WIRE 896 240 896 224
WIRE 608 464 576 464
WIRE 720 464 688 464
WIRE 816 464 784 464
WIRE 944 496 880 496
WIRE 1088 496 1024 496
WIRE 720 528 720 512
WIRE 720 560 720 528
WIRE 816 576 816 464
WIRE 816 576 752 576
WIRE 880 576 880 496
WIRE 880 576 816 576
WIRE 896 576 880 576
WIRE 976 576 960 576
WIRE 1088 576 1088 496
WIRE 1088 576 1056 576
WIRE 1504 576 1504 -224
WIRE 1504 576 1088 576
WIRE 16 592 16 80
WIRE 576 592 576 464
WIRE 576 592 16 592
WIRE 688 592 576 592
WIRE 816 608 752 608
WIRE 816 656 816 608
WIRE 720 704 720 624
WIRE 816 768 816 736
FLAG 672 48 0
FLAG 896 240 0
FLAG 1200 -144 0
FLAG 432 -128 0
FLAG 448 240 0
FLAG 1200 -352 out
FLAG 896 -352 sw
FLAG 784 112 Vgate
FLAG 96 80 vc
FLAG 384 80 c
FLAG 528 -32 vdd
FLAG 624 112 g
FLAG 560 -352 in
FLAG 720 704 0
FLAG 816 768 0
FLAG 720 528 in
FLAG 1440 -80 0
DATAFLAG 1104 -352 ""
SYMBOL voltage 672 -80 R0
WINDOW 0 -70 -19 Left 2
WINDOW 3 -64 56 Left 2
WINDOW 123 0 0 Left 0
WINDOW 39 0 0 Left 0
SYMATTR InstName Vdd_driver
SYMATTR Value 7
SYMBOL res 768 96 R90
WINDOW 0 0 56 VBottom 2
WINDOW 3 32 56 VTop 2
SYMATTR InstName Rg
SYMATTR Value 1
SYMBOL schottky 976 -336 R270
WINDOW 0 32 32 VTop 2
WINDOW 3 0 32 VBottom 2
SYMATTR InstName D1
SYMATTR Value MBRS340
SYMATTR Description Diode
SYMATTR Type diode
SYMBOL nmos 848 32 R0
SYMATTR InstName M1
SYMATTR Value IRF2807Z
SYMBOL cap 1136 -256 R0
WINDOW 0 -44 28 Left 2
WINDOW 3 -49 56 Left 2
SYMATTR InstName C1
SYMATTR Value 100µF
SYMBOL res 1232 -288 R0
SYMATTR InstName Rload
SYMATTR Value {RLOAD}
SYMBOL ind 608 -336 R270
WINDOW 0 32 56 VTop 2
WINDOW 3 5 56 VBottom 2
SYMATTR InstName L1
SYMATTR Value 22µH
SYMBOL res 848 -368 R90
WINDOW 0 0 56 VBottom 2
WINDOW 3 32 56 VTop 2
SYMATTR InstName RL
SYMATTR Value 22mohm
SYMBOL voltage 432 -288 R0
SYMATTR InstName Vg
SYMATTR Value 12
SYMBOL PWM 256 80 R0
SYMATTR InstName U2
SYMATTR SpiceLine2 Dmin=0.01 Dmax=0.9, Voffset=0
SYMATTR SpiceLine VM=1V, fs=131kHz
SYMBOL Driver 512 112 R0
SYMATTR InstName U1
SYMATTR SpiceLine2 Tdelay=30ns, IQ=1mA, Vuvl=5V
SYMBOL res 880 128 R0
SYMATTR InstName Rsens
SYMATTR Value 8.54m
SYMBOL Opamps\\LT1215 720 528 M0
SYMATTR InstName U3
SYMBOL cap 960 560 R90
WINDOW 0 0 32 VBottom 2
WINDOW 3 32 32 VTop 2
SYMATTR InstName C2
SYMATTR Value 3.9nF
SYMBOL cap 784 448 R90
WINDOW 0 0 32 VBottom 2
WINDOW 3 32 32 VTop 2
SYMATTR InstName C3
SYMATTR Value 13nF
SYMBOL res 704 448 R90
WINDOW 0 0 56 VBottom 2
WINDOW 3 32 56 VTop 2
SYMATTR InstName R1
SYMATTR Value 8.6k
SYMBOL res 1072 560 R90
WINDOW 0 0 56 VBottom 2
WINDOW 3 32 56 VTop 2
SYMATTR InstName R2
SYMATTR Value 360
SYMBOL res 1040 480 R90
WINDOW 0 0 56 VBottom 2
WINDOW 3 32 56 VTop 2
SYMATTR InstName R3
SYMATTR Value 30K
SYMBOL voltage 816 640 R0
WINDOW 123 24 116 Left 2
WINDOW 39 0 0 Left 2
SYMATTR Value2 AC 0
SYMATTR InstName Vref1
SYMATTR Value PWL(0 1.2 8m 1.2 8.1m 1.21)
SYMBOL res 1424 -352 R0
SYMATTR InstName R4
SYMATTR Value 22.33k
SYMBOL res 1424 -192 R0
SYMATTR InstName R5
SYMATTR Value 1k
TEXT 976 8 Left 2 !.tran 0 12m 7m 20e-9
TEXT 544 216 Left 2 ;Gate driver
TEXT 128 176 Left 2 ;Pulse-width modulator
TEXT 976 -80 Left 2 ;Simulation directives
TEXT 976 -40 Left 2 !.lib switching.lib
TEXT 976 32 Left 2 !.options reltol=0.0005
TEXT 616 -256 Left 2 ;Boost converter\nswitching model
TEXT 1600 -80 Left 2 !.step param RLOAD list 8 20
