**************************************
*      Model Generated by MODPEX     *
*Copyright(c) Symmetry Design Systems*
*         All Rights Reserved        *
*    UNPUBLISHED LICENSED SOFTWARE   *
*   Contains Proprietary Information *
*      Which is The Property of      *
*     SYMMETRY OR ITS LICENSORS      *
*    Modeling services provided by   *
* Interface Technologies www.i-t.com *
**************************************
.MODEL Q2n6487 npn
+IS=8.43157e-11 BF=256.207 NF=0.85 VAF=18.4722
+IKF=3.46446 ISE=6.24994e-12 NE=3.40625 BR=4.23861
+NR=0.913732 VAR=1.23737 IKR=7.09335 ISC=4e-13
+NC=4 RB=4.67748 IRB=0.1 RBM=0.1
+RE=0.000334664 RC=0.0588993 XTB=0.107717 XTI=1.06156
+EG=1.05 CJE=6.02462e-10 VJE=0.651376 MJE=0.404813
+TF=4e-10 XTF=1.5 VTF=1 ITF=1
+CJC=2.87693e-10 VJC=0.4 MJC=0.255987 XCJC=0.8
+FC=0.533333 CJS=0 VJS=0.75 MJS=0.5
+TR=4.4099e-07 PTF=0 KF=0 AF=1
* Model generated on Feb 21, 2004
* Model format: PSpice
 