Version 4
SHEET 1 1932 728
WIRE 528 -800 288 -800
WIRE 288 -768 288 -800
WIRE 528 -752 528 -800
WIRE 608 -752 528 -752
WIRE 0 -720 -304 -720
WIRE 528 -720 528 -752
WIRE 240 -704 64 -704
WIRE -304 -688 -304 -720
WIRE -304 -688 -384 -688
WIRE -304 -672 -304 -688
WIRE -272 -672 -304 -672
WIRE -144 -672 -192 -672
WIRE 0 -672 -144 -672
WIRE 80 -672 64 -672
WIRE 288 -672 288 -688
WIRE 288 -656 288 -672
WIRE 80 -592 80 -672
WIRE 240 -592 80 -592
WIRE 288 -560 288 -576
WIRE 528 -560 528 -640
WIRE 528 -560 288 -560
WIRE 288 -512 288 -560
WIRE 64 -432 -176 -432
WIRE -176 -400 -176 -432
WIRE 64 -384 64 -432
WIRE 240 -384 64 -384
WIRE 608 -384 608 -752
WIRE 608 -384 304 -384
WIRE -496 -368 -800 -368
WIRE -800 -352 -800 -368
WIRE -800 -352 -848 -352
WIRE -272 -352 -432 -352
WIRE 64 -352 64 -384
WIRE -272 -336 -272 -352
WIRE -224 -336 -272 -336
WIRE -800 -320 -800 -352
WIRE -768 -320 -800 -320
WIRE -640 -320 -688 -320
WIRE -496 -320 -640 -320
WIRE -400 -320 -432 -320
WIRE -176 -304 -176 -320
WIRE -176 -288 -176 -304
WIRE -400 -224 -400 -320
WIRE -224 -224 -400 -224
WIRE -176 -192 -176 -208
WIRE 64 -192 64 -288
WIRE 64 -192 -176 -192
WIRE -560 -16 -672 -16
WIRE -400 -16 -496 -16
WIRE -672 112 -672 -16
WIRE -672 112 -784 112
WIRE -592 112 -672 112
WIRE -448 112 -496 112
WIRE -400 112 -400 -16
WIRE -400 112 -448 112
WIRE -304 112 -400 112
WIRE -16 112 -304 112
WIRE 32 112 -16 112
WIRE 288 112 112 112
WIRE 432 112 288 112
WIRE 976 112 432 112
WIRE -1360 192 -1360 96
WIRE -944 192 -944 96
WIRE -784 192 -784 112
WIRE -512 192 -512 160
WIRE 288 192 288 112
WIRE 432 192 432 112
WIRE 976 192 976 112
WIRE -304 208 -304 112
WIRE -16 224 -16 112
WIRE -352 288 -384 288
WIRE -304 304 -304 288
WIRE -784 368 -784 272
WIRE -304 368 -304 304
WIRE -304 368 -784 368
WIRE -16 368 -16 288
WIRE -16 368 -304 368
WIRE 288 368 288 256
WIRE 288 368 -16 368
WIRE 432 368 432 256
WIRE 432 368 288 368
WIRE 976 368 976 272
WIRE 976 368 432 368
WIRE -1360 384 -1360 272
WIRE -944 384 -944 272
WIRE -784 400 -784 368
FLAG -1360 384 0
FLAG -784 400 0
FLAG -1360 96 VG1
FLAG -512 192 VG_1
FLAG 976 112 VREG
FLAG -944 96 VG2
FLAG -944 384 0
FLAG -384 288 VG_2
FLAG -640 -256 0
FLAG -144 -608 0
FLAG -848 -352 VG1
FLAG 1216 -384 VG2
FLAG -384 -688 VG2
FLAG 240 -640 0
FLAG 240 -752 0
FLAG -224 -272 0
FLAG -224 -384 0
FLAG -176 -304 VG_1
FLAG 288 -672 VG_2
FLAG 288 -512 0
FLAG -448 112 VS1
FLAG -176 -192 VS1
SYMBOL voltage -784 176 R0
WINDOW 123 0 0 Left 0
WINDOW 39 0 0 Left 0
SYMATTR InstName V1
SYMATTR Value 36
SYMBOL ind 16 128 R270
WINDOW 0 32 56 VTop 2
WINDOW 3 5 56 VBottom 2
SYMATTR InstName L1
SYMATTR Value 67µ
SYMBOL cap 272 192 R0
SYMATTR InstName C1
SYMATTR Value 7.95µ
SYMBOL nmos -592 160 R270
SYMATTR InstName M1
SYMATTR Value IRF530
SYMBOL voltage -1360 176 M0
WINDOW 123 0 0 Left 0
WINDOW 39 0 0 Left 0
SYMATTR InstName V2
SYMATTR Value PULSE(0 12 2p 1p 1p 910n 5u)
SYMBOL voltage -944 176 M0
WINDOW 123 0 0 Left 0
WINDOW 39 0 0 Left 0
SYMATTR InstName V4
SYMATTR Value PULSE(12 0 2p 1p 1p 910n 5u)
SYMBOL nmos -352 208 R0
SYMATTR InstName M2
SYMATTR Value IRF530
SYMBOL cap 416 192 R0
SYMATTR InstName C2
SYMATTR Value 1n
SYMBOL res 960 176 R0
SYMATTR InstName RL
SYMATTR Value 4.3
SYMBOL diode 0 288 R180
WINDOW 0 24 64 Left 2
WINDOW 3 24 0 Left 2
SYMATTR InstName D1
SYMATTR Value RF05VAM1S
SYMBOL diode -496 -32 R90
WINDOW 0 0 32 VBottom 2
WINDOW 3 32 32 VTop 2
SYMATTR InstName D2
SYMBOL Digital\\and -464 -400 R0
SYMATTR InstName A2
SYMBOL cap -656 -320 R0
SYMATTR InstName C3
SYMATTR Value 15p
SYMBOL res -672 -336 R90
WINDOW 0 0 56 VBottom 2
WINDOW 3 32 56 VTop 2
SYMATTR InstName R1
SYMATTR Value 10k
SYMBOL Digital\\and 32 -752 R0
SYMATTR InstName A1
SYMBOL cap -160 -672 R0
SYMATTR InstName C4
SYMATTR Value 15p
SYMBOL res -176 -688 R90
WINDOW 0 0 56 VBottom 2
WINDOW 3 32 56 VTop 2
SYMATTR InstName R2
SYMATTR Value 10k
SYMBOL sw 288 -784 R0
SYMATTR InstName S1
SYMATTR Value SW_1
SYMBOL sw 288 -672 R0
SYMATTR InstName S2
SYMATTR Value SW_1
SYMBOL voltage 528 -736 R0
WINDOW 123 0 0 Left 0
WINDOW 39 0 0 Left 0
SYMATTR InstName V3
SYMATTR Value 8
SYMBOL sw -176 -416 R0
SYMATTR InstName S3
SYMATTR Value SW_1
SYMBOL sw -176 -304 R0
SYMATTR InstName S4
SYMATTR Value SW_1
SYMBOL cap 48 -352 R0
SYMATTR InstName C5
SYMATTR Value 100n
SYMBOL diode 304 -400 R90
WINDOW 0 0 32 VBottom 2
WINDOW 3 32 32 VTop 2
SYMATTR InstName D3
SYMATTR Value 1N4148
TEXT -784 512 Left 2 !.tran 0 500u 0
TEXT -776 552 Left 2 !;step param C2 list 500n 600n 700n 800n 1u
TEXT 632 -736 Left 2 ;pongo un 1 y me genera un retardo ya que el capacitor se tiene que cargar  a diferencia del 0 que es automatico
TEXT 640 -696 Left 2 ;voy a agregarle la diferencia entre vg1 y vg2
TEXT 648 -648 Left 2 !.Model SW_1 SW(Ron=1 Roff=10Meg Vt=0.5V)
TEXT 656 -600 Left 2 !.Model SW_2 SW(Ron=10Meg Roff=1 Vt=0.5V)
TEXT 688 -520 Left 2 ;c5 en una fuente auxiliar para llegar a mis 8 volt para prender el mos
TEXT 696 -464 Left 2 ;diodo para que el capacitor no se descargue
TEXT 712 -416 Left 2 ;yo pongo el capacitor para generar vgs=8v igual que esten flotando los terminales
