Version 4
SHEET 1 2292 1412
WIRE 896 -896 784 -896
WIRE 1056 -896 960 -896
WIRE 512 -768 272 -768
WIRE 784 -768 784 -896
WIRE 784 -768 512 -768
WIRE 864 -768 784 -768
WIRE 1056 -768 1056 -896
WIRE 1056 -768 960 -768
WIRE 1424 -768 1056 -768
WIRE 1600 -768 1424 -768
WIRE 1856 -768 1680 -768
WIRE 2000 -768 1856 -768
WIRE 2176 -768 2000 -768
WIRE 2224 -768 2176 -768
WIRE 1856 -736 1856 -768
WIRE 2000 -736 2000 -768
WIRE 1056 -720 1056 -768
WIRE 944 -704 944 -720
WIRE 272 -688 272 -768
WIRE 2224 -688 2224 -768
WIRE 512 -672 512 -768
WIRE 1424 -672 1424 -768
WIRE 1856 -624 1856 -656
WIRE 2000 -624 2000 -656
WIRE 944 -592 944 -624
WIRE 1248 -592 1200 -592
WIRE 1376 -592 1328 -592
WIRE 1424 -576 1424 -592
WIRE 272 -512 272 -608
WIRE 512 -512 512 -608
WIRE 512 -512 272 -512
WIRE 1424 -512 1424 -576
WIRE 1424 -512 512 -512
WIRE 1856 -512 1856 -560
WIRE 1856 -512 1424 -512
WIRE 2000 -512 2000 -560
WIRE 2000 -512 1856 -512
WIRE 2224 -512 2224 -608
WIRE 2224 -512 2000 -512
WIRE 272 -480 272 -512
WIRE 1168 -416 1024 -416
WIRE 1168 -400 1168 -416
WIRE 1024 -368 1024 -416
WIRE 1024 -304 1024 -368
WIRE 1168 -288 1168 -320
WIRE 1024 -272 1024 -304
WIRE 592 -256 256 -256
WIRE 688 -256 592 -256
WIRE 880 -256 816 -256
WIRE 944 -256 880 -256
WIRE 960 -256 944 -256
WIRE 1104 -224 1088 -224
WIRE 1120 -224 1104 -224
WIRE 1168 -224 1120 -224
WIRE 1280 -224 1248 -224
WIRE 1344 -224 1280 -224
WIRE 944 -192 896 -192
WIRE 960 -192 944 -192
WIRE 1024 -144 1024 -176
WIRE 896 -112 896 -192
WIRE 944 -112 896 -112
WIRE 1024 -112 1024 -144
WIRE 1024 -112 944 -112
WIRE 944 -96 944 -112
WIRE 1168 -48 1024 -48
WIRE 1168 -32 1168 -48
WIRE 1024 0 1024 -48
WIRE 1024 64 1024 0
WIRE 1168 80 1168 48
WIRE 1024 96 1024 64
WIRE 880 112 816 112
WIRE 944 112 880 112
WIRE 960 112 944 112
WIRE 1104 144 1088 144
WIRE 1120 144 1104 144
WIRE 1168 144 1120 144
WIRE 1280 144 1248 144
WIRE 1344 144 1280 144
WIRE 944 176 896 176
WIRE 960 176 944 176
WIRE 1024 224 1024 192
WIRE 896 256 896 176
WIRE 944 256 896 256
WIRE 1024 256 1024 224
WIRE 1024 256 944 256
WIRE 944 272 944 256
WIRE 1360 368 1296 368
WIRE 1536 368 1440 368
WIRE 1296 448 1296 368
WIRE 1360 448 1296 448
WIRE 1440 448 1424 448
WIRE 1536 448 1536 368
WIRE 1536 448 1520 448
WIRE 2176 464 2176 -768
WIRE -48 528 -48 496
WIRE 1536 576 1536 448
WIRE 1536 576 1440 576
WIRE 2176 576 2176 544
WIRE 2176 576 1536 576
WIRE 256 592 256 -256
WIRE 1296 592 1296 448
WIRE 1296 592 256 592
WIRE 1376 592 1296 592
WIRE 1504 608 1440 608
WIRE 2176 624 2176 576
WIRE -48 640 -48 608
WIRE 1504 656 1504 608
WIRE 128 704 128 688
WIRE 1408 704 1408 624
WIRE 2176 720 2176 704
WIRE 1504 768 1504 736
WIRE 128 832 128 784
FLAG 128 832 0
FLAG 128 688 d
FLAG 272 -480 0
FLAG 2224 -768 VREG_2
FLAG 2176 720 0
FLAG 1408 704 0
FLAG 1504 768 0
FLAG 2176 576 Vf_buck
FLAG -48 640 0
FLAG 1408 560 VPOS
FLAG -48 496 VPOS
FLAG 1168 -288 0
FLAG 944 -96 0
FLAG 1280 -224 VG_1
FLAG 592 -256 vc1
FLAG 880 -256 c1
FLAG 1024 -368 vdd
FLAG 1120 -224 g1
FLAG 944 -592 VG_1
FLAG 1200 -592 VG_2
FLAG 1056 -720 VS1
FLAG 1168 80 0
FLAG 944 272 0
FLAG 1280 144 VG_2
FLAG 880 112 c2
FLAG 1024 0 vdd
FLAG 1120 144 g2
SYMBOL voltage 128 688 R0
WINDOW 3 -374 105 Left 2
WINDOW 123 -87 77 Left 2
WINDOW 39 0 0 Left 2
SYMATTR Value PWL(0 0.174 5.01m 0.174 5.02m 0.180)
SYMATTR Value2 AC 0
SYMATTR InstName Vduty1
SYMBOL voltage 272 -704 R0
WINDOW 123 0 0 Left 0
WINDOW 39 0 0 Left 0
SYMATTR InstName V1
SYMATTR Value 12
SYMBOL ind 1584 -752 R270
WINDOW 0 32 56 VTop 2
WINDOW 3 5 56 VBottom 2
SYMATTR InstName L1
SYMATTR Value 90µ
SYMBOL cap 1840 -624 R0
SYMATTR InstName C1
SYMATTR Value 10µ
SYMBOL cap 1984 -624 R0
SYMATTR InstName C2
SYMATTR Value 1n
SYMBOL res 2208 -704 R0
SYMATTR InstName RL1
SYMATTR Value 4.3
SYMBOL res 1840 -752 R0
SYMATTR InstName R1
SYMATTR Value 30
SYMBOL res 1984 -752 R0
SYMATTR InstName R2
SYMATTR Value 0.1
SYMBOL res 2160 448 R0
SYMATTR InstName R3
SYMATTR Value 5.1k
SYMBOL res 2160 608 R0
SYMATTR InstName R4
SYMATTR Value 1.2k
SYMBOL voltage 1504 640 R0
WINDOW 123 24 116 Left 2
WINDOW 39 0 0 Left 2
SYMATTR Value2 AC 0
SYMATTR InstName Vref1
SYMATTR Value PWL(0 1.2 8m 1.2 8.1m 1.21)
SYMBOL voltage -48 512 R0
WINDOW 123 24 44 Left 2
WINDOW 39 0 0 Left 0
SYMATTR Value2 AC 0
SYMATTR InstName Vg1
SYMATTR Value 5
SYMBOL Opamps\\opamp2 1408 528 M0
SYMATTR InstName U1
SYMATTR Value LM358
SYMBOL cap 1424 432 R90
WINDOW 0 0 32 VBottom 2
WINDOW 3 32 32 VTop 2
SYMATTR InstName C3
SYMATTR Value 100n
SYMBOL res 1456 352 R90
WINDOW 0 0 56 VBottom 2
WINDOW 3 32 56 VTop 2
SYMATTR InstName R5
SYMATTR Value 180k
SYMBOL res 1536 432 R90
WINDOW 0 0 56 VBottom 2
WINDOW 3 32 56 VTop 2
SYMATTR InstName R6
SYMATTR Value 220
SYMBOL voltage 1168 -416 R0
WINDOW 0 -70 -19 Left 2
WINDOW 3 -64 56 Left 2
WINDOW 123 0 0 Left 0
WINDOW 39 -70 9 Left 2
SYMATTR InstName Vdd_driver1
SYMATTR Value 7
SYMATTR SpiceLine Rser=1
SYMBOL res 1264 -240 R90
WINDOW 0 0 56 VBottom 2
WINDOW 3 32 56 VTop 2
SYMATTR InstName Rg1
SYMATTR Value 1
SYMBOL PWM 752 -256 R0
SYMATTR InstName U3
SYMATTR SpiceLine2 Dmin=0.01 Dmax=0.9, Voffset=0
SYMATTR SpiceLine VM=1V, fs=200kHz
SYMBOL Driver 1008 -224 R0
SYMATTR InstName U4
SYMATTR SpiceLine2 Tdelay=30ns, IQ=1mA, Vuvl=5V
SYMBOL nmos 864 -720 R270
SYMATTR InstName M2
SYMATTR Value IRF530
SYMBOL nmos 1376 -672 R0
SYMATTR InstName M3
SYMATTR Value IRF530
SYMBOL diode 960 -912 R90
WINDOW 0 0 32 VBottom 2
WINDOW 3 32 32 VTop 2
SYMATTR InstName D1
SYMBOL cap 496 -672 R0
SYMATTR InstName C4
SYMATTR Value 0
SYMBOL res 1344 -608 R90
WINDOW 0 0 56 VBottom 2
WINDOW 3 32 56 VTop 2
SYMATTR InstName Rdrv1
SYMATTR Value 5
SYMBOL res 928 -720 R0
SYMATTR InstName Rdrv2
SYMATTR Value 5
SYMBOL voltage 1168 -48 R0
WINDOW 0 -70 -19 Left 2
WINDOW 3 -64 56 Left 2
WINDOW 123 0 0 Left 0
WINDOW 39 -64 84 Left 2
SYMATTR InstName Vdd_driver2
SYMATTR Value 7
SYMATTR SpiceLine Rser=1
SYMBOL res 1264 128 R90
WINDOW 0 0 56 VBottom 2
WINDOW 3 32 56 VTop 2
SYMATTR InstName Rg2
SYMATTR Value 1
SYMBOL PWM 752 112 R0
SYMATTR InstName U2
SYMATTR SpiceLine2 Dmin=0.01 Dmax=0.9, Voffset=0
SYMATTR SpiceLine VM=1V, fs=200kHz
SYMBOL Driver 1008 144 R0
SYMATTR InstName U5
SYMATTR SpiceLine2 Tdelay=30ns, IQ=1mA, Vuvl=5V
TEXT -192 -568 Left 2 !.lib switching_average\\switching.lib
TEXT -192 -512 Left 2 !.lib switching_average\\average.lib
TEXT -184 -624 Left 2 ;Librerias de simulacion
TEXT -192 -352 Left 2 !.tran 0 12m 7m 1u
TEXT -192 -304 Left 2 !;ac dec 300 0.01 1Meg
TEXT -192 -400 Left 2 ;Tipos de simulacion
TEXT -184 -464 Left 2 !.inc LM339.txt
TEXT -184 -432 Left 2 !.inc LM358.txt
TEXT 1040 -120 Left 2 ;Gate driver
TEXT 624 -160 Left 2 ;Pulse-width modulator
TEXT 1040 248 Left 2 ;Gate driver
TEXT 624 208 Left 2 ;Pulse-width modulator
