Version 4
SHEET 1 1036 692
WIRE 16 48 -176 48
WIRE 304 48 112 48
WIRE 496 48 304 48
WIRE 752 48 576 48
WIRE 960 48 752 48
WIRE -176 128 -176 48
WIRE 96 128 96 96
WIRE 752 128 752 48
WIRE 960 128 960 48
WIRE 304 144 304 48
WIRE -768 208 -768 112
WIRE -352 208 -352 112
WIRE 256 224 224 224
WIRE 304 240 304 224
WIRE -176 304 -176 208
WIRE 304 304 304 240
WIRE 304 304 -176 304
WIRE 752 304 752 192
WIRE 752 304 304 304
WIRE 960 304 960 208
WIRE 960 304 752 304
WIRE -176 336 -176 304
WIRE -768 400 -768 288
WIRE -352 400 -352 288
FLAG -768 400 0
FLAG -176 336 0
FLAG -768 112 VG1
FLAG 96 128 VG1
FLAG 960 48 VREG
FLAG -352 112 VG2
FLAG -352 400 0
FLAG 224 224 VG2
SYMBOL voltage -176 112 R0
WINDOW 123 0 0 Left 0
WINDOW 39 0 0 Left 0
SYMATTR InstName V1
SYMATTR Value 36
SYMBOL ind 480 64 R270
WINDOW 0 32 56 VTop 2
WINDOW 3 5 56 VBottom 2
SYMATTR InstName L1
SYMATTR Value 150µ
SYMBOL cap 736 128 R0
SYMATTR InstName C1
SYMATTR Value 600n
SYMBOL nmos 16 96 R270
SYMATTR InstName M1
SYMBOL voltage -768 192 M0
WINDOW 123 0 0 Left 0
WINDOW 39 0 0 Left 0
SYMATTR InstName V2
SYMATTR Value PULSE(0 36 2p 1p 1p 866n 5u)
SYMBOL voltage -352 192 M0
WINDOW 123 0 0 Left 0
WINDOW 39 0 0 Left 0
SYMATTR InstName V4
SYMATTR Value PULSE(36 0 2p 1p 1p 870n 5u)
SYMBOL nmos 256 144 R0
SYMATTR InstName M2
TEXT -176 448 Left 2 !.tran 0 10u 0
TEXT -168 488 Left 2 !;step param C2 list 500n 600n 700n 800n 1u
