Version 4
SHEET 1 2232 1000
WIRE -16 -976 -128 -976
WIRE 144 -976 48 -976
WIRE -400 -848 -640 -848
WIRE -128 -848 -128 -976
WIRE -128 -848 -400 -848
WIRE -48 -848 -128 -848
WIRE 144 -848 144 -976
WIRE 144 -848 48 -848
WIRE 512 -848 144 -848
WIRE 688 -848 512 -848
WIRE 944 -848 768 -848
WIRE 1088 -848 944 -848
WIRE 1280 -848 1088 -848
WIRE 1312 -848 1280 -848
WIRE 944 -816 944 -848
WIRE 1088 -816 1088 -848
WIRE 32 -784 32 -800
WIRE -640 -768 -640 -848
WIRE 1312 -768 1312 -848
WIRE -400 -752 -400 -848
WIRE 512 -752 512 -848
WIRE -896 -720 -896 -752
WIRE 944 -704 944 -736
WIRE 1088 -704 1088 -736
WIRE 32 -672 32 -704
WIRE 336 -672 288 -672
WIRE 464 -672 416 -672
WIRE 512 -656 512 -672
WIRE -896 -608 -896 -640
WIRE -640 -592 -640 -688
WIRE -400 -592 -400 -688
WIRE -400 -592 -640 -592
WIRE 512 -592 512 -656
WIRE 512 -592 -400 -592
WIRE 944 -592 944 -640
WIRE 944 -592 512 -592
WIRE 1088 -592 1088 -640
WIRE 1088 -592 944 -592
WIRE 1312 -592 1312 -688
WIRE 1312 -592 1088 -592
WIRE -640 -560 -640 -592
WIRE -176 -336 -304 -336
WIRE -176 -304 -176 -336
WIRE -304 -224 -304 -336
WIRE -304 -224 -384 -224
WIRE -176 -224 -176 -240
WIRE -176 -224 -256 -224
WIRE -176 -208 -176 -224
WIRE -256 -192 -256 -224
WIRE -256 -192 -384 -192
WIRE -512 -176 -576 -176
WIRE -576 -160 -576 -176
WIRE -576 -160 -656 -160
WIRE -256 -160 -384 -160
WIRE -576 -144 -576 -160
WIRE -512 -144 -576 -144
WIRE -272 -128 -384 -128
WIRE -256 -128 -256 -160
WIRE -176 -128 -176 -144
WIRE -176 -128 -256 -128
WIRE -320 -96 -384 -96
WIRE -272 -64 -272 -128
WIRE -208 -64 -272 -64
WIRE -656 -16 -656 -160
WIRE -320 -16 -320 -96
WIRE -208 -16 -208 -64
WIRE 480 96 400 96
WIRE 624 96 544 96
WIRE 400 176 400 96
WIRE 416 176 400 176
WIRE 528 176 480 176
WIRE 624 176 624 96
WIRE 624 176 608 176
WIRE 1024 192 960 192
WIRE 1136 192 1088 192
WIRE 1280 192 1280 -848
WIRE 1280 192 1216 192
WIRE 624 304 624 176
WIRE 624 304 576 304
WIRE 880 304 624 304
WIRE 960 304 960 192
WIRE 960 304 880 304
WIRE 1072 304 960 304
WIRE 1280 304 1280 192
WIRE 1280 304 1152 304
WIRE 160 320 -112 320
WIRE 400 320 400 176
WIRE 400 320 240 320
WIRE 512 320 400 320
WIRE -912 336 -1040 336
WIRE -112 336 -112 320
WIRE -112 336 -608 336
WIRE 640 336 576 336
WIRE 880 336 880 304
WIRE -672 352 -832 352
WIRE -912 368 -1040 368
WIRE -256 368 -608 368
WIRE 160 384 160 320
WIRE 640 384 640 336
WIRE 880 384 880 336
WIRE 544 432 544 352
WIRE 160 480 160 464
WIRE 880 480 880 464
WIRE 640 496 640 464
WIRE -256 544 -256 368
WIRE -256 784 -256 624
FLAG 880 480 0
FLAG 544 432 0
FLAG 640 496 0
FLAG 880 336 Vf_buck
FLAG 544 288 VPOS
FLAG -640 -560 0
FLAG 1312 -848 VREG_2
FLAG 32 -672 VG_1
FLAG 288 -672 VG_2
FLAG 512 -848 VS1
FLAG 400 320 Verr
FLAG -256 784 0
FLAG -896 -608 0
FLAG -896 -752 VPOS
FLAG -640 384 VPOS
FLAG -640 320 0
FLAG -304 -336 VPOS
FLAG -320 -16 0
FLAG -656 -16 0
FLAG -384 -256 H_in
FLAG -512 -112 L_in
FLAG -512 -208 VG_1
FLAG -512 -240 VG_2
FLAG -208 64 0
FLAG -176 -128 VS1
FLAG -1568 16 0
FLAG -1328 16 0
FLAG -1040 336 H_in
FLAG -1040 368 L_in
FLAG 160 480 0
SYMBOL res 1168 288 R90
WINDOW 0 0 56 VBottom 2
WINDOW 3 32 56 VTop 2
SYMATTR InstName Rf1
SYMATTR Value 24.2k
SYMBOL res 864 368 R0
SYMATTR InstName Rf2
SYMATTR Value 5.7k
SYMBOL voltage 640 368 R0
WINDOW 123 24 116 Left 2
WINDOW 39 0 0 Left 2
SYMATTR Value2 AC 0
SYMATTR InstName Vref1
SYMATTR Value 1.2
SYMBOL Opamps\\opamp2 544 256 M0
SYMATTR InstName U1
SYMATTR Value LM358
SYMBOL cap 544 80 R90
WINDOW 0 0 32 VBottom 2
WINDOW 3 32 32 VTop 2
SYMATTR InstName C1
SYMATTR Value 160p
SYMBOL cap 480 160 R90
WINDOW 0 0 32 VBottom 2
WINDOW 3 32 32 VTop 2
SYMATTR InstName C2
SYMATTR Value 3n
SYMBOL res 624 160 R90
WINDOW 0 0 56 VBottom 2
WINDOW 3 32 56 VTop 2
SYMATTR InstName R1
SYMATTR Value 10k
SYMBOL cap 1088 176 R90
WINDOW 0 0 32 VBottom 2
WINDOW 3 32 32 VTop 2
SYMATTR InstName C3
SYMATTR Value 1.2n
SYMBOL res 1232 176 R90
WINDOW 0 0 56 VBottom 2
WINDOW 3 32 56 VTop 2
SYMATTR InstName R2
SYMATTR Value 830
SYMBOL voltage -640 -784 R0
WINDOW 123 0 0 Left 0
WINDOW 39 0 0 Left 0
SYMATTR InstName V1
SYMATTR Value 36
SYMBOL ind 672 -832 R270
WINDOW 0 32 56 VTop 2
WINDOW 3 5 56 VBottom 2
SYMATTR InstName L1
SYMATTR Value 90µ
SYMBOL cap 928 -704 R0
SYMATTR InstName C4
SYMATTR Value 10µ
SYMBOL cap 1072 -704 R0
SYMATTR InstName C5
SYMATTR Value 1n
SYMBOL res 1296 -784 R0
SYMATTR InstName RL1
SYMATTR Value 4.3
SYMBOL res 928 -832 R0
SYMATTR InstName R3
SYMATTR Value 100m
SYMBOL res 1072 -832 R0
SYMATTR InstName R4
SYMATTR Value 0.1
SYMBOL nmos -48 -800 R270
SYMATTR InstName M1
SYMATTR Value IRF530
SYMBOL nmos 464 -752 R0
SYMATTR InstName M2
SYMATTR Value IRF530
SYMBOL diode 48 -992 R90
WINDOW 0 0 32 VBottom 2
WINDOW 3 32 32 VTop 2
SYMATTR InstName D1
SYMBOL cap -416 -752 R0
SYMATTR InstName C6
SYMATTR Value 0
SYMBOL res 432 -688 R90
WINDOW 0 0 56 VBottom 2
WINDOW 3 32 56 VTop 2
SYMATTR InstName Rdrv1
SYMATTR Value 5
SYMBOL res 16 -800 R0
SYMATTR InstName Rdrv2
SYMATTR Value 5
SYMBOL voltage -256 528 R0
WINDOW 123 0 0 Left 0
WINDOW 39 0 0 Left 0
SYMATTR InstName V2
SYMATTR Value PULSE(0 1 0 2.5u 2.5u 0 5u)
SYMBOL Comparators\\LT1720 -640 416 R180
SYMATTR InstName U2
SYMBOL voltage -896 -736 R0
WINDOW 123 24 44 Left 2
WINDOW 39 0 0 Left 0
SYMATTR Value2 AC 0
SYMATTR InstName Vg1
SYMATTR Value 12
SYMBOL cap -192 -208 R0
SYMATTR InstName Cboot
SYMATTR Value 150n
SYMBOL diode -192 -304 R0
SYMATTR InstName Dboot
SYMATTR Value 1N4007
SYMBOL voltage -208 -32 R0
WINDOW 123 0 0 Left 0
WINDOW 39 0 0 Left 0
SYMATTR InstName V3
SYMATTR Value 7
SYMBOL dead_time -864 352 M0
SYMATTR InstName U7
SYMATTR SpiceLine Td=50ns
SYMBOL IR2110 -448 -176 R0
SYMATTR InstName U8
SYMBOL voltage -1568 -80 R0
WINDOW 123 0 0 Left 0
WINDOW 39 0 0 Left 0
SYMATTR InstName V4
SYMATTR Value PULSE(0 5 0 1n 1n 882n 5u)
SYMBOL voltage -1328 -80 R0
WINDOW 123 0 0 Left 0
WINDOW 39 0 0 Left 0
SYMATTR InstName V5
SYMATTR Value PULSE(5 0 0 1n 1n 882n 5u)
SYMBOL res 256 304 R90
WINDOW 0 0 56 VBottom 2
WINDOW 3 32 56 VTop 2
SYMATTR InstName R7
SYMATTR Value 60k
SYMBOL res 144 368 R0
SYMATTR InstName R8
SYMATTR Value 1k
TEXT -1208 -576 Left 2 !.tran 0 1m 0
TEXT -1208 -640 Left 2 !.inc LM358.txt
TEXT -1432 -768 Left 2 !.lib switching_average\\switching.lib
TEXT -1432 -712 Left 2 !.lib switching_average\\average.lib
TEXT -1600 -344 Left 2 !.MODEL 1N4007 D  ( IS=76.9p RS=42.0m BV=1.00k IBV=5.00u\n+ CJO=26.5p  M=0.333 N=1.45 TT=4.32u )
TEXT -1584 -416 Left 2 !.include IR2110.txt
TEXT -240 488 Left 2 ;Triangular
