Version 4
SHEET 1 2868 756
WIRE 1232 -80 1136 -80
WIRE 1136 -48 1136 -80
WIRE 1488 -16 1376 -16
WIRE 1632 -16 1488 -16
WIRE 1632 0 1632 -16
WIRE 928 48 672 48
WIRE 1232 48 1024 48
WIRE 1488 80 1488 -16
WIRE 304 96 240 96
WIRE 240 112 240 96
WIRE -128 144 -224 144
WIRE -224 160 -224 144
WIRE 672 160 672 48
WIRE 672 160 464 160
WIRE 784 160 672 160
WIRE 1632 160 1632 80
WIRE 912 176 848 176
WIRE 1008 176 1008 96
WIRE 1008 176 992 176
WIRE 784 192 672 192
WIRE 672 240 672 192
WIRE 1488 304 1488 160
WIRE 1632 304 1632 224
WIRE 672 368 672 320
WIRE -176 496 -176 464
WIRE -176 608 -176 576
FLAG -224 160 0
FLAG 240 112 0
FLAG -176 608 0
FLAG -176 464 VIN
FLAG -128 176 VIN
FLAG 304 128 VIN
FLAG 32 128 VOP
FLAG 304 160 VOP
FLAG 32 160 VPOSA
FLAG 32 192 VREF
FLAG 304 192 VREF
FLAG 672 368 0
FLAG 816 144 VOP
FLAG 816 208 0
FLAG 1136 -48 0
FLAG 1232 -48 VOP
FLAG 1232 -16 VPOSA
FLAG 1232 16 VREF
FLAG 1488 304 0
FLAG 1632 304 0
FLAG 1488 -16 Vo
SYMBOL Buck_v 384 144 R0
SYMATTR InstName Buck
SYMBOL support -48 160 R0
SYMATTR InstName Support
SYMBOL voltage -176 480 R0
WINDOW 123 0 0 Left 0
WINDOW 39 0 0 Left 0
SYMATTR InstName VIN
SYMATTR Value 12
SYMBOL Opamps\\opamp2 816 112 R0
SYMATTR InstName U1
SYMATTR Value LM339
SYMBOL voltage 672 224 R0
WINDOW 123 0 0 Left 0
WINDOW 39 0 0 Left 0
SYMATTR InstName V2
SYMATTR Value 5.6
SYMBOL pmos 928 96 R270
SYMATTR InstName M1
SYMATTR Value FDS6685
SYMBOL res 1008 160 R90
WINDOW 0 0 56 VBottom 2
WINDOW 3 32 56 VTop 2
SYMATTR InstName R2
SYMATTR Value 100
SYMBOL LDOA 1296 -16 R0
SYMATTR InstName LDOA
SYMBOL res 1472 64 R0
SYMATTR InstName RL
SYMATTR Value {RL}
SYMBOL res 1616 -16 R0
SYMATTR InstName R3
SYMATTR Value 1
SYMBOL cap 1616 160 R0
SYMATTR InstName CL
SYMATTR Value {CL}
TEXT 1814 224 Left 2 !.tran 200m startup
TEXT 1800 -88 Left 2 !.include LM339.txt
TEXT 1808 56 Left 2 !.param RL 100
TEXT 1808 96 Left 2 !.param CL 15u
TEXT 1800 -144 Left 2 ;Includes
TEXT 1808 8 Left 2 ;Parametros
TEXT 1816 176 Left 2 ;Simulaciones
TEXT 2192 -104 Left 2 !.meas DC Vo1rl FIND V(Vo) AT=12
TEXT 2200 -64 Left 2 !.meas DC Vo2rl FIND V(Vo) AT=36
TEXT 2200 -24 Left 2 !.meas DC RegLin PARAM ((Vo2rl-Vo1rl)/0.2)
TEXT 2200 -152 Left 2 ;Regulacion de linea
TEXT 2200 112 Left 2 !.meas OP Vo1rc FIND V(Vo) AT 500
TEXT 2200 152 Left 2 !.meas OP Vo2rc FIND V(Vo) AT 10
TEXT 2200 192 Left 2 !.meas OP Io1rc FIND I(RL) AT 500
TEXT 2208 232 Left 2 !.meas OP Io2rc FIND I(RL) AT 10
TEXT 2208 272 Left 2 !.meas OP RegCar PARAM (-(Vo2rc-Vo1rc)/(Io2rc-Io1rc))
TEXT 2208 72 Left 2 ;Regulacion de carga
TEXT 2200 392 Left 2 ;-100*((V(vo)*I(RL))/(V(VIN)*I(VIN)))
TEXT 2208 344 Left 2 ;Eficiencia
TEXT 1816 272 Left 2 !;dc VIN 12 36
TEXT 1816 312 Left 2 !;step param RL 100 0.1 0.25
TEXT 1816 368 Left 2 !;op
