Version 4
SHEET 1 2868 756
WIRE 368 -240 256 -240
WIRE 528 -240 448 -240
WIRE 592 -240 528 -240
WIRE 256 -224 256 -240
WIRE 528 -224 528 -240
WIRE 256 -112 256 -144
WIRE 528 -112 528 -160
WIRE 896 32 784 32
WIRE 784 48 784 32
WIRE 1184 80 1072 80
WIRE 1328 80 1184 80
WIRE 304 96 240 96
WIRE 1328 96 1328 80
WIRE 240 112 240 96
WIRE -128 144 -224 144
WIRE -224 160 -224 144
WIRE 896 160 464 160
WIRE 1184 176 1184 80
WIRE 1328 256 1328 176
WIRE 1184 400 1184 256
WIRE 1328 400 1328 320
WIRE -176 496 -176 464
WIRE -176 608 -176 576
FLAG -224 160 0
FLAG 240 112 0
FLAG -176 608 0
FLAG -176 464 VIN
FLAG -128 176 VIN
FLAG 304 128 VIN
FLAG 32 128 VOP
FLAG 304 160 VOP
FLAG 32 160 VPOSA
FLAG 32 192 VREF
FLAG 304 192 VREF
FLAG 1184 400 0
FLAG 1328 400 0
FLAG 1184 80 Vo
FLAG 784 48 0
FLAG 896 64 VOP
FLAG 896 96 VPOSA
FLAG 896 128 VREF
FLAG 256 -112 0
FLAG 528 -112 0
FLAG 592 -240 DISABLE
FLAG 896 0 DISABLE
SYMBOL Buck_v 384 144 R0
SYMATTR InstName Buck
SYMBOL support -48 160 R0
SYMATTR InstName Support
SYMBOL voltage -176 480 R0
WINDOW 123 0 0 Left 0
WINDOW 39 0 0 Left 0
SYMATTR InstName VIN
SYMATTR Value 12
SYMBOL res 1168 160 R0
SYMATTR InstName RL
SYMATTR Value {RL}
SYMBOL res 1312 80 R0
SYMATTR InstName R3
SYMATTR Value 1
SYMBOL cap 1312 256 R0
SYMATTR InstName CL
SYMATTR Value {CL}
SYMBOL LDOA 976 80 R0
SYMATTR InstName LDOA
SYMBOL voltage 256 -240 R0
WINDOW 123 0 0 Left 0
WINDOW 39 0 0 Left 0
SYMATTR InstName V1
SYMATTR Value 0
SYMBOL res 464 -256 R90
WINDOW 0 0 56 VBottom 2
WINDOW 3 32 56 VTop 2
SYMATTR InstName R1
SYMATTR Value 10
SYMBOL cap 512 -224 R0
SYMATTR InstName C1
SYMATTR Value 400µ
TEXT 1816 224 Left 2 !.tran 500m startup
TEXT 1800 -88 Left 2 !.include LM339.txt
TEXT 1808 56 Left 2 !.param RL 5
TEXT 1808 96 Left 2 !.param CL 15u
TEXT 1800 -144 Left 2 ;Includes
TEXT 1808 8 Left 2 ;Parametros
TEXT 1816 176 Left 2 ;Simulaciones
TEXT 2192 -104 Left 2 !.meas DC Vo1rl FIND V(Vo) AT=12
TEXT 2200 -64 Left 2 !.meas DC Vo2rl FIND V(Vo) AT=36
TEXT 2200 -24 Left 2 !.meas DC RegLin PARAM ((Vo2rl-Vo1rl)/0.2)
TEXT 2200 -152 Left 2 ;Regulacion de linea
TEXT 2200 112 Left 2 !.meas OP Vo1rc FIND V(Vo) AT 500
TEXT 2200 152 Left 2 !.meas OP Vo2rc FIND V(Vo) AT 10
TEXT 2200 192 Left 2 !.meas OP Io1rc FIND I(RL) AT 500
TEXT 2208 232 Left 2 !.meas OP Io2rc FIND I(RL) AT 10
TEXT 2208 272 Left 2 !.meas OP RegCar PARAM (-(Vo2rc-Vo1rc)/(Io2rc-Io1rc))
TEXT 2208 72 Left 2 ;Regulacion de carga
TEXT 2200 392 Left 2 ;-100*((V(vo)*I(RL))/(V(VIN)*I(VIN)))
TEXT 2208 344 Left 2 ;Eficiencia
TEXT 1816 272 Left 2 !;dc VIN 12 36
TEXT 1816 312 Left 2 !;step param RL 100 0.1 0.25
TEXT 1816 368 Left 2 !;op
