Version 4
SHEET 1 2916 1220
WIRE 368 -240 256 -240
WIRE 528 -240 448 -240
WIRE 592 -240 528 -240
WIRE 256 -224 256 -240
WIRE 528 -224 528 -240
WIRE 256 -112 256 -144
WIRE 528 -112 528 -160
WIRE -208 80 -320 80
WIRE 304 96 240 96
WIRE 1072 96 1056 96
WIRE 1168 96 1152 96
WIRE 1312 96 1168 96
WIRE 1456 96 1312 96
WIRE -320 112 -320 80
WIRE 240 112 240 96
WIRE 1312 112 1312 96
WIRE 912 144 880 144
WIRE 576 160 464 160
WIRE 880 160 880 144
WIRE 880 160 576 160
WIRE 1168 192 1168 96
WIRE 1456 240 1456 176
WIRE 1616 256 1504 256
WIRE 1312 272 1312 192
WIRE 1616 320 1616 256
WIRE 1168 416 1168 272
WIRE 1312 416 1312 336
WIRE -176 496 -176 464
WIRE 1456 496 1456 320
WIRE 1504 496 1504 304
WIRE 1504 496 1456 496
WIRE 1616 496 1616 400
WIRE 1616 496 1504 496
WIRE 1504 528 1504 496
WIRE -176 608 -176 576
FLAG 240 112 0
FLAG -176 608 0
FLAG -176 464 VIN
FLAG 304 128 VIN
FLAG 304 160 VOP
FLAG 304 192 VREF
FLAG 1168 416 0
FLAG 1312 416 0
FLAG 1168 96 Vo
FLAG 256 -112 0
FLAG 528 -112 0
FLAG 592 -240 DISABLE
FLAG 576 160 Vreg
FLAG -320 112 0
FLAG -208 112 VIN
FLAG -48 64 VOP
FLAG -48 96 VPOSA
FLAG -48 128 VREF
FLAG 912 48 VOP
FLAG 912 80 VPOSA
FLAG 912 112 VREF
FLAG 1504 528 0
SYMBOL Buck_v 384 144 R0
SYMATTR InstName Buck
SYMBOL voltage -176 480 R0
WINDOW 123 0 0 Left 0
WINDOW 39 24 124 Left 2
SYMATTR SpiceLine Rser=0.1
SYMATTR InstName VIN
SYMATTR Value 12
SYMBOL res 1152 176 R0
SYMATTR InstName RL
SYMATTR Value {RL}
SYMBOL res 1296 96 R0
SYMATTR InstName R3
SYMATTR Value 1
SYMBOL cap 1296 272 R0
SYMATTR InstName CL
SYMATTR Value {CL}
SYMBOL voltage 256 -240 R0
WINDOW 123 0 0 Left 0
WINDOW 39 0 0 Left 0
SYMATTR InstName V1
SYMATTR Value 0
SYMBOL res 464 -256 R90
WINDOW 0 0 56 VBottom 2
WINDOW 3 32 56 VTop 2
SYMATTR InstName R1
SYMATTR Value 10
SYMBOL cap 512 -224 R0
SYMATTR InstName C1
SYMATTR Value 400µ
SYMBOL support -128 96 R0
SYMATTR InstName Support
SYMBOL LDOA_v2 976 96 R0
SYMATTR InstName LDOA
SYMBOL sw 1456 336 R180
SYMATTR InstName S1
SYMBOL res 1440 80 R0
SYMATTR InstName R2
SYMATTR Value 0
SYMBOL voltage 1616 304 R0
WINDOW 123 0 0 Left 0
WINDOW 39 0 0 Left 0
SYMATTR InstName V2
SYMATTR Value ""
SYMBOL res 1168 80 R90
WINDOW 0 0 56 VBottom 2
WINDOW 3 32 56 VTop 2
SYMATTR InstName R4
SYMATTR Value 0.1
TEXT 1784 104 Left 2 !.tran 200m startup
TEXT 1768 -208 Left 2 !.include LM339.txt
TEXT 1776 -64 Left 2 !.param RL 250
TEXT 1776 -24 Left 2 !.param CL 7u
TEXT 1768 -264 Left 2 ;Includes
TEXT 1776 -112 Left 2 ;Parametros
TEXT 1784 56 Left 2 ;Simulaciones
TEXT 2160 -224 Left 2 !.meas DC Vo1rl FIND V(Vo) AT=12
TEXT 2168 -184 Left 2 !.meas DC Vo2rl FIND V(Vo) AT=36
TEXT 2168 -144 Left 2 !.meas DC RegLin PARAM ((Vo2rl-Vo1rl)/0.2)
TEXT 2168 -272 Left 2 ;Regulacion de linea
TEXT 2168 -8 Left 2 !.meas OP Vo1rc FIND V(Vo) AT 500
TEXT 2168 32 Left 2 !.meas OP Vo2rc FIND V(Vo) AT 10
TEXT 2168 72 Left 2 !.meas OP Io1rc FIND I(RL) AT 500
TEXT 2176 112 Left 2 !.meas OP Io2rc FIND I(RL) AT 10
TEXT 2176 152 Left 2 !.meas OP RegCar PARAM (-(Vo2rc-Vo1rc)/(Io2rc-Io1rc))
TEXT 2176 -48 Left 2 ;Regulacion de carga
TEXT 2168 272 Left 2 ;-100*((V(vo)*I(RL))/(V(VIN)*I(VIN)))
TEXT 2176 224 Left 2 ;Eficiencia
TEXT 1784 152 Left 2 !;dc VIN 12 36
TEXT 1784 192 Left 2 !;step param RL 1 100 0.5
TEXT 1784 248 Left 2 !.op
TEXT 2160 336 Left 2 !.model SW SW (Ron = 0.1 Roff = 100Meg Vt=0.5 Vh=0.25 )
