Version 4
SHEET 1 892 680
WIRE -160 -464 -224 -464
WIRE -32 -464 -80 -464
WIRE 32 -464 -32 -464
WIRE 160 -464 112 -464
WIRE 176 -464 160 -464
WIRE 160 -352 160 -464
WIRE -32 -336 -32 -464
WIRE -32 -192 -32 -272
WIRE -32 -192 -224 -192
WIRE 160 -192 160 -272
WIRE 160 -192 -32 -192
WIRE -160 -32 -224 -32
WIRE -32 -32 -80 -32
WIRE 176 -32 -32 -32
WIRE 448 -32 384 -32
WIRE 576 -32 528 -32
WIRE 784 -32 576 -32
WIRE -32 96 -32 -32
WIRE 576 96 576 -32
WIRE -32 240 -32 160
WIRE -32 240 -224 240
WIRE 576 240 576 160
WIRE 576 240 384 240
FLAG -224 -464 VIN
IOPIN -224 -464 In
FLAG -224 -32 VIN
IOPIN -224 -32 In
FLAG 384 -32 VIN
IOPIN 384 -32 In
FLAG 160 -464 VREF
IOPIN 160 -464 Out
FLAG 176 -32 VPOSA
IOPIN 176 -32 Out
FLAG 784 -32 VOP
IOPIN 784 -32 Out
FLAG -224 240 GND
IOPIN -224 240 In
FLAG 384 240 GND
IOPIN 384 240 In
FLAG -224 -192 GND
IOPIN -224 -192 In
SYMBOL res -64 -48 R90
WINDOW 0 0 56 VBottom 2
WINDOW 3 32 56 VTop 2
SYMATTR InstName R1
SYMATTR Value 11K
SYMBOL References\\LT1389-5 -32 128 R0
SYMATTR InstName U2
SYMBOL res -64 -480 R90
WINDOW 0 0 56 VBottom 2
WINDOW 3 32 56 VTop 2
SYMATTR InstName R5
SYMATTR Value 5.6K
SYMBOL References\\LT1004-1.2 -32 -304 R0
SYMATTR InstName U3
SYMBOL res 128 -480 R90
WINDOW 0 0 56 VBottom 2
WINDOW 3 32 56 VTop 2
SYMATTR InstName R6
SYMATTR Value 25
SYMBOL res 144 -368 R0
SYMATTR InstName R7
SYMATTR Value 1K
SYMBOL res 544 -48 R90
WINDOW 0 0 56 VBottom 2
WINDOW 3 32 56 VTop 2
SYMATTR InstName R8
SYMATTR Value 11K
SYMBOL References\\LT1389-5 576 128 R0
SYMATTR InstName U4
