Version 4
SHEET 1 1252 680
WIRE 656 -544 608 -544
WIRE 752 -544 736 -544
WIRE 848 -544 752 -544
WIRE 960 -544 848 -544
WIRE 752 -480 752 -544
WIRE -160 -464 -224 -464
WIRE -32 -464 -80 -464
WIRE 32 -464 -32 -464
WIRE 160 -464 112 -464
WIRE 176 -464 160 -464
WIRE 848 -400 848 -544
WIRE 752 -368 752 -400
WIRE 816 -368 752 -368
WIRE 160 -352 160 -464
WIRE -32 -336 -32 -464
WIRE 752 -336 752 -368
WIRE 752 -224 752 -256
WIRE 848 -224 848 -336
WIRE 848 -224 752 -224
WIRE 848 -208 848 -224
WIRE -32 -192 -32 -272
WIRE -32 -192 -224 -192
WIRE 160 -192 160 -272
WIRE 160 -192 -32 -192
WIRE 352 -16 304 -16
WIRE 448 -16 432 -16
WIRE 544 -16 448 -16
WIRE 656 -16 544 -16
WIRE 448 48 448 -16
WIRE 544 128 544 -16
WIRE 448 160 448 128
WIRE 512 160 448 160
WIRE 448 192 448 160
WIRE 448 304 448 272
WIRE 544 304 544 192
WIRE 544 304 448 304
WIRE 544 320 544 304
FLAG -224 -464 VIN
IOPIN -224 -464 In
FLAG 160 -464 VREF
IOPIN 160 -464 Out
FLAG -224 -192 GND
IOPIN -224 -192 In
FLAG 960 -544 VOP
IOPIN 960 -544 Out
FLAG 848 -208 0
FLAG 608 -544 VIN
IOPIN 608 -544 In
FLAG 544 320 0
FLAG 304 -16 VIN
IOPIN 304 -16 In
FLAG 656 -16 VPOSA
IOPIN 656 -16 Out
SYMBOL res -64 -480 R90
WINDOW 0 0 56 VBottom 2
WINDOW 3 32 56 VTop 2
SYMATTR InstName R5
SYMATTR Value 5.6K
SYMBOL References\\LT1004-1.2 -32 -304 R0
SYMATTR InstName U3
SYMBOL res 128 -480 R90
WINDOW 0 0 56 VBottom 2
WINDOW 3 32 56 VTop 2
SYMATTR InstName R6
SYMATTR Value 25
SYMBOL res 144 -368 R0
SYMATTR InstName R7
SYMATTR Value 1K
SYMBOL tl431 832 -400 R0
SYMATTR InstName U1
SYMBOL res 736 -496 R0
SYMATTR InstName R2
SYMATTR Value 3.8k
SYMBOL res 736 -352 R0
SYMATTR InstName R3
SYMATTR Value 1k
SYMBOL res 752 -560 R90
WINDOW 0 0 56 VBottom 2
WINDOW 3 32 56 VTop 2
SYMATTR InstName R4
SYMATTR Value 330
SYMBOL tl431 528 128 R0
SYMATTR InstName U2
SYMBOL res 432 32 R0
SYMATTR InstName R1
SYMATTR Value 1k
SYMBOL res 432 176 R0
SYMATTR InstName R8
SYMATTR Value 1k
SYMBOL res 448 -32 R90
WINDOW 0 0 56 VBottom 2
WINDOW 3 32 56 VTop 2
SYMATTR InstName R9
SYMATTR Value 330
TEXT 1056 -200 Left 2 !.include tl431.lib
