Version 4
SHEET 1 1436 1124
WIRE -496 -528 -864 -528
WIRE -176 -528 -496 -528
WIRE 112 -528 -176 -528
WIRE 256 -528 208 -528
WIRE 304 -528 256 -528
WIRE 400 -528 304 -528
WIRE 608 -528 480 -528
WIRE 1008 -528 608 -528
WIRE 1120 -528 1008 -528
WIRE 160 -400 160 -464
WIRE 256 -400 256 -528
WIRE -496 -384 -496 -448
WIRE -176 -384 -176 -448
WIRE -336 -336 -432 -336
WIRE -240 -336 -336 -336
WIRE 608 -320 608 -528
WIRE -864 -224 -864 -528
WIRE -496 -224 -496 -288
WIRE -336 -224 -336 -336
WIRE -336 -224 -496 -224
WIRE -176 -224 -176 -288
WIRE 32 -224 -176 -224
WIRE 208 -224 208 -336
WIRE 208 -224 32 -224
WIRE 1008 -224 1008 -528
WIRE 1120 -208 1120 -528
WIRE -496 -144 -496 -224
WIRE -176 -144 -176 -224
WIRE -560 -96 -656 -96
WIRE 496 -96 -112 -96
WIRE 608 -96 608 -240
WIRE 608 -96 496 -96
WIRE 608 -64 608 -96
WIRE -496 0 -496 -48
WIRE -352 0 -496 0
WIRE -176 0 -176 -48
WIRE -176 0 -352 0
WIRE -656 16 -656 -96
WIRE -352 32 -352 0
WIRE 608 32 608 16
WIRE 848 32 608 32
WIRE 912 112 896 112
WIRE -864 144 -864 -144
WIRE -656 144 -656 96
WIRE -656 144 -864 144
WIRE -352 144 -352 112
WIRE -352 144 -656 144
WIRE 608 144 608 112
WIRE 608 144 -352 144
WIRE 848 144 848 128
WIRE 848 144 608 144
WIRE 1008 144 1008 -144
WIRE 1008 144 848 144
WIRE 1120 144 1120 -144
WIRE 1120 144 1008 144
WIRE -352 160 -352 144
WIRE -1152 288 -1152 240
WIRE -1152 416 -1152 368
WIRE -336 480 -336 448
WIRE -208 480 -208 448
WIRE -496 560 -528 560
WIRE -336 560 -416 560
WIRE 432 560 400 560
WIRE 544 560 512 560
WIRE 656 560 544 560
WIRE 768 576 720 576
WIRE 832 576 768 576
WIRE 992 576 912 576
WIRE 1152 576 992 576
WIRE -336 592 -336 560
WIRE -288 592 -336 592
WIRE -208 592 -208 560
WIRE -208 592 -256 592
WIRE -144 592 -208 592
WIRE 656 592 624 592
WIRE 1296 592 1216 592
WIRE 1360 592 1296 592
WIRE -528 608 -528 560
WIRE -288 608 -288 592
WIRE -256 608 -256 592
WIRE -144 608 -144 592
WIRE 544 608 544 560
WIRE 1152 608 1104 608
WIRE 624 672 624 592
WIRE 768 672 768 576
WIRE 768 672 624 672
WIRE 544 704 544 688
WIRE -272 720 -272 672
WIRE -144 720 -144 688
WIRE -144 720 -272 720
WIRE 1104 720 1104 608
WIRE 1152 720 1104 720
WIRE 1296 720 1296 592
WIRE 1296 720 1232 720
WIRE -864 784 -864 752
WIRE -432 816 -512 816
WIRE -384 816 -432 816
WIRE -272 816 -272 720
WIRE -272 816 -304 816
WIRE 1104 816 1104 800
WIRE -752 832 -800 832
WIRE -640 832 -672 832
WIRE -576 832 -640 832
WIRE -480 848 -512 848
WIRE -384 848 -480 848
WIRE 448 880 416 880
WIRE 560 880 528 880
WIRE 656 880 560 880
WIRE 768 896 720 896
WIRE 832 896 768 896
WIRE 992 896 992 576
WIRE 992 896 912 896
WIRE -864 912 -864 880
WIRE -384 912 -384 848
WIRE -272 912 -304 912
WIRE 656 912 624 912
WIRE 560 960 560 880
WIRE -640 976 -640 832
WIRE -592 976 -640 976
WIRE -480 976 -480 848
WIRE -480 976 -512 976
WIRE -432 992 -432 816
WIRE 624 992 624 912
WIRE 768 992 768 896
WIRE 768 992 624 992
WIRE 560 1056 560 1040
WIRE -432 1104 -432 1072
FLAG -352 160 0
FLAG 912 112 SELA
FLAG -864 -528 Vin
FLAG 1008 -528 Vo
FLAG 32 -224 Vod
FLAG 496 -96 Vf
FLAG -656 -96 Vref
FLAG 304 -528 Vs1
FLAG -528 608 0
FLAG -432 1104 0
FLAG -864 912 0
FLAG -864 752 Vod
FLAG -272 816 Vs
FLAG -272 912 Vrefc
FLAG -336 448 Vs1
FLAG -208 448 Vo
FLAG 544 704 0
FLAG 560 1056 0
FLAG 1104 816 0
FLAG 400 560 Vref
FLAG 416 880 Vf
FLAG 1360 592 Vrefc
FLAG -1152 416 0
FLAG -1152 240 SELA
SYMBOL npn -560 -144 R0
SYMATTR InstName Q1
SYMATTR Value BC546B
SYMBOL npn -112 -144 M0
SYMATTR InstName Q2
SYMATTR Value BC546B
SYMBOL pnp -432 -288 R180
SYMATTR InstName Q3
SYMATTR Value BC327-25
SYMBOL pnp -240 -288 M180
SYMATTR InstName Q4
SYMATTR Value BC327-25
SYMBOL res -512 -544 R0
SYMATTR InstName RE1
SYMATTR Value {RE}
SYMBOL res -192 -544 R0
SYMATTR InstName RE2
SYMATTR Value {RE}
SYMBOL res -368 16 R0
SYMATTR InstName Rpol
SYMATTR Value 500
SYMBOL voltage -656 0 R0
WINDOW 123 0 0 Left 0
WINDOW 39 0 0 Left 0
SYMATTR InstName Vref
SYMATTR Value 1.2
SYMBOL pnp 208 -464 M270
SYMATTR InstName Q5
SYMATTR Value BC327-25
SYMBOL npn 160 -336 R270
SYMATTR InstName Q6
SYMATTR Value BC546B
SYMBOL res 496 -544 R90
WINDOW 0 0 56 VBottom 2
WINDOW 3 32 56 VTop 2
SYMATTR InstName Rs
SYMATTR Value 0.1
SYMBOL res 592 -336 R0
SYMATTR InstName Rf1
SYMATTR Value 3.16k
SYMBOL res 592 -80 R0
SYMATTR InstName Rf3
SYMATTR Value 1k
SYMBOL res 592 16 R0
SYMATTR InstName Rf2
SYMATTR Value 820
SYMBOL res 992 -240 R0
SYMATTR InstName RL
SYMATTR Value {RL}
SYMBOL cap 1104 -208 R0
SYMATTR InstName C1
SYMATTR Value 1µ
SYMBOL voltage -864 -240 R0
SYMATTR InstName Vin
SYMATTR Value {Vin}
SYMBOL nmos 896 32 M0
SYMATTR InstName M1
SYMATTR Value AO6408
SYMBOL res -352 464 R0
SYMATTR InstName R1
SYMATTR Value 10k
SYMBOL res -224 464 R0
SYMATTR InstName R2
SYMATTR Value 10k
SYMBOL res -288 800 R90
WINDOW 0 0 56 VBottom 2
WINDOW 3 32 56 VTop 2
SYMATTR InstName R3
SYMATTR Value 10k
SYMBOL res -160 592 R0
SYMATTR InstName R4
SYMATTR Value 100k
SYMBOL res -400 544 R90
WINDOW 0 0 56 VBottom 2
WINDOW 3 32 56 VTop 2
SYMATTR InstName R5
SYMATTR Value 100k
SYMBOL res -288 896 R90
WINDOW 0 0 56 VBottom 2
WINDOW 3 32 56 VTop 2
SYMATTR InstName R6
SYMATTR Value 10k
SYMBOL res -416 1088 R180
WINDOW 0 36 76 Left 2
WINDOW 3 36 40 Left 2
SYMATTR InstName R7
SYMATTR Value 100k
SYMBOL res -608 992 R270
WINDOW 0 32 56 VTop 2
WINDOW 3 0 56 VBottom 2
SYMATTR InstName R8
SYMATTR Value 100k
SYMBOL res -768 848 R270
WINDOW 0 32 56 VTop 2
WINDOW 3 0 56 VBottom 2
SYMATTR InstName R9
SYMATTR Value 100
SYMBOL npn -800 784 M0
SYMATTR InstName Q7
SYMATTR Value 2N2222
SYMBOL res 928 560 R90
WINDOW 0 0 56 VBottom 2
WINDOW 3 32 56 VTop 2
SYMATTR InstName R10
SYMATTR Value 10k
SYMBOL res 928 880 R90
WINDOW 0 0 56 VBottom 2
WINDOW 3 32 56 VTop 2
SYMATTR InstName R11
SYMATTR Value 10k
SYMBOL res 528 544 R90
WINDOW 0 0 56 VBottom 2
WINDOW 3 32 56 VTop 2
SYMATTR InstName R12
SYMATTR Value 20k
SYMBOL res 560 704 R180
WINDOW 0 36 76 Left 2
WINDOW 3 36 40 Left 2
SYMATTR InstName R13
SYMATTR Value 10k
SYMBOL res 576 1056 R180
WINDOW 0 36 76 Left 2
WINDOW 3 36 40 Left 2
SYMATTR InstName R14
SYMATTR Value 10k
SYMBOL res 432 896 R270
WINDOW 0 32 56 VTop 2
WINDOW 3 0 56 VBottom 2
SYMATTR InstName R15
SYMATTR Value 900
SYMBOL res 1248 704 R90
WINDOW 0 0 56 VBottom 2
WINDOW 3 32 56 VTop 2
SYMATTR InstName R16
SYMATTR Value 10k
SYMBOL res 1120 816 R180
WINDOW 0 36 76 Left 2
WINDOW 3 36 40 Left 2
SYMATTR InstName R17
SYMATTR Value 10k
SYMBOL voltage -1152 272 R0
WINDOW 123 0 0 Left 0
WINDOW 39 0 0 Left 0
SYMATTR InstName VSELA
SYMATTR Value 0
SYMBOL OpAmps\\opamp -208 640 R90
SYMATTR InstName U1
SYMBOL OpAmps\\opamp -544 896 R180
SYMATTR InstName U2
SYMBOL OpAmps\\opamp 688 640 M180
SYMATTR InstName U3
SYMBOL OpAmps\\opamp 688 960 M180
SYMATTR InstName U4
SYMBOL OpAmps\\opamp 1184 656 M180
SYMATTR InstName U5
TEXT -1344 -448 Left 2 !.param Vin 6.35
TEXT -1328 -512 Left 2 ;Parámetros
TEXT -1336 -400 Left 2 !.param RE 4.7
TEXT -1336 -344 Left 2 !.param RL 5
TEXT -1336 -288 Left 2 !;step param RL 100 0.1 0.1
TEXT -864 440 Left 2 ;Lazo de corriente
TEXT 360 432 Left 2 ;Referencia Lazo de Corriente
TEXT -1336 -136 Left 2 !;tran 0 1m 0 1u
TEXT -1336 -192 Left 2 ;Simulaciones
TEXT -1328 -88 Left 2 !;op
TEXT -1328 -32 Left 2 !.dc Vin 1 12
TEXT 952 208 Left 2 !.lib opamp.sub
